           8
 Configuration:  381  Energy(u.a.)=   -214.16271814
C1       0.0000000000            0.4663393949            0.5932864698
C1       0.0000000000           -0.4663393949           -0.5932864698
H4       0.8884363804            1.0959623133            0.5921146257
H4      -0.8884363804            1.0959623133            0.5921146257
H4       0.8884363804           -1.0959623133           -0.5921146257
H4      -0.8884363804           -1.0959623133           -0.5921146257
F3       0.0000000000           -0.2947283454            1.7313694084
F3       0.0000000000            0.2947283454           -1.7313694084
